* NGSPICE file created from sky130_ef_ip__rc_osc_16M.ext - technology: sky130A

** x1 ena vdd1v8 vdd3v3 GND GND dout sky130_ef_ip__rc_osc_16M

.subckt sky130_ef_ip__rc_osc_16M ena dvdd avdd dvss avss dout
X0 a_1178_9068# a_1344_7168# avss.t101 sky130_fd_pr__res_xhigh_po_0p35 l=7.5
X1 avdd.t19 a_1538_5653.t0 a_1538_5653.t1 avdd.t17 sky130_fd_pr__pfet_g5v0d10v5 ad=0.1218 pd=1.42 as=0.1218 ps=1.42 w=0.42 l=0.5
X2 a_6490_9068# a_6656_7168# avss.t15 sky130_fd_pr__res_xhigh_po_0p35 l=7.5
X3 a_7672_3118# a_7506_1218# avss.t8 sky130_fd_pr__res_xhigh_po_0p35 l=7.5
X4 a_2360_3118# a_2194_1218# avss.t82 sky130_fd_pr__res_xhigh_po_0p35 l=7.5
X5 a_3502_9068# a_3336_7168# avss.t66 sky130_fd_pr__res_xhigh_po_0p35 l=7.5
X6 a_5162_9068# a_4996_7168# avss.t14 sky130_fd_pr__res_xhigh_po_0p35 l=7.5
X7 a_7008_3118# a_6842_1218# avss.t57 sky130_fd_pr__res_xhigh_po_0p35 l=7.5
X8 a_8814_9068# a_8648_7168# avss.t56 sky130_fd_pr__res_xhigh_po_0p35 l=7.5
X9 a_2692_3118# a_2858_1218# avss.t55 sky130_fd_pr__res_xhigh_po_0p35 l=7.5
X10 avss.t103 ena.t0 rc_osc_level_shifter_0.outb_h.t1 avss.t102 sky130_fd_pr__nfet_g5v0d10v5 ad=0.1218 pd=1.42 as=0.1218 ps=1.42 w=0.42 l=0.5
X11 a_9664_3118# a_9830_1218# avss.t79 sky130_fd_pr__res_xhigh_po_0p35 l=7.5
X12 a_9996_3118# a_10162_1218# avss.t76 sky130_fd_pr__res_xhigh_po_0p35 l=7.5
X13 a_7154_9068# a_7320_7168# avss.t40 sky130_fd_pr__res_xhigh_po_0p35 l=7.5
X14 a_1364_3118# a_1198_1218# avss.t7 sky130_fd_pr__res_xhigh_po_0p35 l=7.5
X15 dvdd.t7 ena.t1 rc_osc_level_shifter_0.inb_l dvdd.t6 sky130_fd_pr__pfet_01v8 ad=0.29 pd=2.58 as=0.29 ps=2.58 w=1 l=0.15
X16 a_6676_3118# a_6510_1218# avss.t75 sky130_fd_pr__res_xhigh_po_0p35 l=7.5
X17 a_6444_4786# a_2982_4700.t2 avss.t100 avss.t87 sky130_fd_pr__nfet_g5v0d10v5 ad=0.1218 pd=1.42 as=0.1218 ps=1.42 w=0.42 l=0.5
X18 a_4166_9068# a_4000_7168# avss.t78 sky130_fd_pr__res_xhigh_po_0p35 l=7.5
X19 a_4194_4788# a_3638_4788# a_4036_4788# avss.t50 sky130_fd_pr__nfet_g5v0d10v5 ad=0.1218 pd=1.42 as=0.1218 ps=1.42 w=0.42 l=0.5
X20 a_2506_9068# a_2340_7168# avss.t49 sky130_fd_pr__res_xhigh_po_0p35 l=7.5
X21 a_9478_9068# a_9312_7168# avss.t77 sky130_fd_pr__res_xhigh_po_0p35 l=7.5
X22 a_7818_9068# a_7652_7168# avss.t32 sky130_fd_pr__res_xhigh_po_0p35 l=7.5
X23 a_5016_3118# a_5182_1218# avss.t31 sky130_fd_pr__res_xhigh_po_0p35 l=7.5
X24 a_8668_3118# a_8834_1218# avss.t38 sky130_fd_pr__res_xhigh_po_0p35 l=7.5
X25 a_3356_3118# a_3522_1218# avss.t37 sky130_fd_pr__res_xhigh_po_0p35 l=7.5
X26 avdd.t15 a_1538_5653.t10 a_1538_5653.t11 avdd.t14 sky130_fd_pr__pfet_g5v0d10v5 ad=0.1218 pd=1.42 as=0.1218 ps=1.42 w=0.42 l=0.5
X27 a_846_9068# a_1012_7168# avss.t71 sky130_fd_pr__res_xhigh_po_0p35 l=7.5
X28 a_6158_9068# a_6324_7168# avss.t13 sky130_fd_pr__res_xhigh_po_0p35 l=7.5
X29 a_7340_3118# a_7174_1218# avss.t65 sky130_fd_pr__res_xhigh_po_0p35 l=7.5
X30 a_10142_9068# a_10308_7168# avss.t25 sky130_fd_pr__res_xhigh_po_0p35 l=7.5
X31 avdd.t16 a_1538_5653.t14 a_4854_5653# avdd.t0 sky130_fd_pr__pfet_g5v0d10v5 ad=0.1218 pd=1.42 as=0.1218 ps=1.42 w=0.42 l=0.5
X32 avdd.t18 a_1538_5653.t8 a_1538_5653.t9 avdd.t17 sky130_fd_pr__pfet_g5v0d10v5 ad=0.1218 pd=1.42 as=0.1218 ps=1.42 w=0.42 l=0.5
X33 a_9332_3118# a_9498_1218# avss.t114 sky130_fd_pr__res_xhigh_po_0p35 l=7.5
X34 a_4020_3118# a_4186_1218# avss.t112 sky130_fd_pr__res_xhigh_po_0p35 l=7.5
X35 a_2360_3118# a_2526_1218# avss.t29 sky130_fd_pr__res_xhigh_po_0p35 l=7.5
X36 a_5826_9068# a_5992_7168# avss.t45 sky130_fd_pr__res_xhigh_po_0p35 l=7.5
X37 a_7672_3118# a_7838_1218# avss.t36 sky130_fd_pr__res_xhigh_po_0p35 l=7.5
X38 a_5162_9068# a_5328_7168# avss.t136 sky130_fd_pr__res_xhigh_po_0p35 l=7.5
X39 dvss.t6 ena.t2 rc_osc_level_shifter_0.inb_l dvss.t5 sky130_fd_pr__nfet_01v8 ad=0.29 pd=2.58 as=0.29 ps=2.58 w=1 l=0.15
X40 avdd.t13 a_1538_5653.t15 a_5470_5653# avdd.t12 sky130_fd_pr__pfet_g5v0d10v5 ad=0.1218 pd=1.42 as=0.1218 ps=1.42 w=0.42 l=0.5
X41 a_1032_3118# a_866_1218# avss.t64 sky130_fd_pr__res_xhigh_po_0p35 l=7.5
X42 a_6344_3118# a_6178_1218# avss.t48 sky130_fd_pr__res_xhigh_po_0p35 l=7.5
X43 a_6602_4786# ena.t3 a_6444_4786# avss.t87 sky130_fd_pr__nfet_g5v0d10v5 ad=0.1218 pd=1.42 as=0.1218 ps=1.42 w=0.42 l=0.5
X44 a_1538_5653.t7 a_1538_5653.t6 avdd.t11 avdd.t7 sky130_fd_pr__pfet_g5v0d10v5 ad=0.1218 pd=1.42 as=0.1218 ps=1.42 w=0.42 l=0.5
X45 a_9146_9068# a_8980_7168# avss.t63 sky130_fd_pr__res_xhigh_po_0p35 l=7.5
X46 a_10308_7168# a_10162_1218# avss.t135 sky130_fd_pr__res_xhigh_po_0p35 l=7.5
X47 a_4830_9068# a_4996_7168# avss.t27 sky130_fd_pr__res_xhigh_po_0p35 l=7.5
X48 a_8336_3118# a_8502_1218# avss.t85 sky130_fd_pr__res_xhigh_po_0p35 l=7.5
X49 a_5348_3118# a_5182_1218# avss.t24 sky130_fd_pr__res_xhigh_po_0p35 l=7.5
X50 a_1842_9068# a_1676_7168# avss.t54 sky130_fd_pr__res_xhigh_po_0p35 l=7.5
X51 avdd.t28 rc_osc_level_shifter_0.out_h.t2 a_1538_5653.t12 avdd.t14 sky130_fd_pr__pfet_g5v0d10v5 ad=0.1218 pd=1.42 as=0.1218 ps=1.42 w=0.42 l=0.5
X52 a_9000_3118# a_9166_1218# avss.t81 sky130_fd_pr__res_xhigh_po_0p35 l=7.5
X53 a_5494_9068# a_5660_7168# avss.t80 sky130_fd_pr__res_xhigh_po_0p35 l=7.5
X54 a_7340_3118# a_7506_1218# avss.t122 sky130_fd_pr__res_xhigh_po_0p35 l=7.5
X55 a_4750_4788# a_4194_4788# a_4854_5653# avdd.t0 sky130_fd_pr__pfet_g5v0d10v5 ad=0.1218 pd=1.42 as=0.1218 ps=1.42 w=0.42 l=0.5
X56 a_1414_4786.t3 rc_osc_level_shifter_0.outb_h.t2 avss.t47 avss.t46 sky130_fd_pr__nfet_g5v0d10v5 ad=0.1218 pd=1.42 as=0.1218 ps=1.42 w=0.42 l=0.5
X57 avdd.t10 a_1538_5653.t4 a_1538_5653.t5 avdd.t9 sky130_fd_pr__pfet_g5v0d10v5 ad=0.1218 pd=1.42 as=0.1218 ps=1.42 w=0.42 l=0.5
X58 a_6012_3118# a_5846_1218# avss.t28 sky130_fd_pr__res_xhigh_po_0p35 l=7.5
X59 a_8366_5327# rc_osc_level_shifter_0.out_h.t3 rc_osc_level_shifter_0.outb_h.t0 avdd.t26 sky130_fd_pr__pfet_g5v0d10v5 ad=0.1218 pd=1.42 as=0.1218 ps=1.42 w=0.42 l=0.5
X60 a_1696_3118# a_1862_1218# avss.t113 sky130_fd_pr__res_xhigh_po_0p35 l=7.5
X61 a_1414_4786.t2 rc_osc_level_shifter_0.out_h.t4 a_514_7168.t1 avss.t33 sky130_fd_pr__nfet_g5v0d10v5 ad=0.1218 pd=1.42 as=0.1218 ps=1.42 w=0.42 l=0.5
X62 a_700_3118# a_534_1218# avss.t23 sky130_fd_pr__res_xhigh_po_0p35 l=7.5
X63 a_2982_4700.t1 a_4750_4788# a_5470_5653# avdd.t12 sky130_fd_pr__pfet_g5v0d10v5 ad=0.1218 pd=1.42 as=0.1218 ps=1.42 w=0.42 l=0.5
X64 a_4498_9068# a_4664_7168# avss.t53 sky130_fd_pr__res_xhigh_po_0p35 l=7.5
X65 a_9810_9068# a_9976_7168# avss.t98 sky130_fd_pr__res_xhigh_po_0p35 l=7.5
X66 avdd.t4 a_1538_5653.t16 a_3622_5653# avdd.t3 sky130_fd_pr__pfet_g5v0d10v5 ad=0.1218 pd=1.42 as=0.1218 ps=1.42 w=0.42 l=0.5
X67 a_1538_5653.t3 a_1538_5653.t2 avdd.t8 avdd.t7 sky130_fd_pr__pfet_g5v0d10v5 ad=0.1218 pd=1.42 as=0.1218 ps=1.42 w=0.42 l=0.5
X68 a_5680_3118# a_5514_1218# avss.t39 sky130_fd_pr__res_xhigh_po_0p35 l=7.5
X69 a_3170_9068# a_3004_7168# avss.t22 sky130_fd_pr__res_xhigh_po_0p35 l=7.5
X70 a_5016_3118# a_4850_1218# avss.t68 sky130_fd_pr__res_xhigh_po_0p35 l=7.5
X71 a_1510_9068# a_1344_7168# avss.t130 sky130_fd_pr__res_xhigh_po_0p35 l=7.5
X72 a_6822_9068# a_6656_7168# avss.t111 sky130_fd_pr__res_xhigh_po_0p35 l=7.5
X73 a_8482_9068# a_8316_7168# avss.t117 sky130_fd_pr__res_xhigh_po_0p35 l=7.5
X74 avdd.t6 a_1538_5653.t17 a_3006_5653# avdd.t5 sky130_fd_pr__pfet_g5v0d10v5 ad=0.1218 pd=1.42 as=0.1218 ps=1.42 w=0.42 l=0.5
X75 dout.t0 a_6602_4786# dvss.t1 dvss.t0 sky130_fd_pr__nfet_01v8 ad=0.145 pd=1.58 as=0.145 ps=1.58 w=0.5 l=0.15
X76 avdd.t2 a_1538_5653.t18 a_4238_5653# avdd.t1 sky130_fd_pr__pfet_g5v0d10v5 ad=0.1218 pd=1.42 as=0.1218 ps=1.42 w=0.42 l=0.5
X77 a_3502_9068# a_3668_7168# avss.t26 sky130_fd_pr__res_xhigh_po_0p35 l=7.5
X78 rc_osc_level_shifter_0.out_h.t1 rc_osc_level_shifter_0.outb_h.t3 a_7598_4659# avdd.t23 sky130_fd_pr__pfet_g5v0d10v5 ad=0.1218 pd=1.42 as=0.1218 ps=1.42 w=0.42 l=0.5
X79 rc_osc_level_shifter_0.out_h.t0 rc_osc_level_shifter_0.inb_l avss.t52 avss.t51 sky130_fd_pr__nfet_g5v0d10v5 ad=0.1218 pd=1.42 as=0.1218 ps=1.42 w=0.42 l=0.5
X80 a_9996_3118# a_9830_1218# avss.t62 sky130_fd_pr__res_xhigh_po_0p35 l=7.5
X81 a_4684_3118# a_4518_1218# avss.t86 sky130_fd_pr__res_xhigh_po_0p35 l=7.5
X82 a_2174_9068# a_2008_7168# avss.t17 sky130_fd_pr__res_xhigh_po_0p35 l=7.5
X83 a_7486_9068# a_7320_7168# avss.t30 sky130_fd_pr__res_xhigh_po_0p35 l=7.5
X84 dout.t1 rc_osc_level_shifter_0.inb_l a_10681_5200# dvdd.t2 sky130_fd_pr__pfet_01v8 ad=0.465 pd=3.62 as=0.2475 ps=1.83 w=1.5 l=0.15
X85 a_5826_9068# a_5660_7168# avss.t74 sky130_fd_pr__res_xhigh_po_0p35 l=7.5
X86 a_3024_3118# a_3190_1218# avss.t134 sky130_fd_pr__res_xhigh_po_0p35 l=7.5
X87 a_1364_3118# a_1530_1218# avss.t84 sky130_fd_pr__res_xhigh_po_0p35 l=7.5
X88 a_6676_3118# a_6842_1218# avss.t44 sky130_fd_pr__res_xhigh_po_0p35 l=7.5
X89 a_4166_9068# a_4332_7168# avss.t21 sky130_fd_pr__res_xhigh_po_0p35 l=7.5
X90 a_9478_9068# a_9644_7168# avss.t73 sky130_fd_pr__res_xhigh_po_0p35 l=7.5
X91 a_3688_3118# a_3522_1218# avss.t124 sky130_fd_pr__res_xhigh_po_0p35 l=7.5
X92 a_514_9068# a_680_7168# avss.t20 sky130_fd_pr__res_xhigh_po_0p35 l=7.5
X93 a_1178_9068# a_1012_7168# avss.t19 sky130_fd_pr__res_xhigh_po_0p35 l=7.5
X94 a_5148_4788# a_1414_4786.t4 avss.t97 avss.t96 sky130_fd_pr__nfet_g5v0d10v5 ad=0.1218 pd=1.42 as=0.1218 ps=1.42 w=0.42 l=0.5
X95 a_8150_9068# a_7984_7168# avss.t129 sky130_fd_pr__res_xhigh_po_0p35 l=7.5
X96 a_2028_3118# a_2194_1218# avss.t70 sky130_fd_pr__res_xhigh_po_0p35 l=7.5
X97 a_5680_3118# a_5846_1218# avss.t139 sky130_fd_pr__res_xhigh_po_0p35 l=7.5
X98 a_6602_4786# a_2982_4700.t3 dvdd.t3 avdd.t27 sky130_fd_pr__pfet_g5v0d10v5 ad=0.3654 pd=3.1 as=0.3654 ps=3.1 w=1.26 l=0.5
X99 a_3638_4788# a_3082_4788# a_3622_5653# avdd.t3 sky130_fd_pr__pfet_g5v0d10v5 ad=0.1218 pd=1.42 as=0.1218 ps=1.42 w=0.42 l=0.5
X100 a_3480_4788# a_1414_4786.t5 avss.t95 avss.t94 sky130_fd_pr__nfet_g5v0d10v5 ad=0.1218 pd=1.42 as=0.1218 ps=1.42 w=0.42 l=0.5
X101 a_3170_9068# a_3336_7168# avss.t141 sky130_fd_pr__res_xhigh_po_0p35 l=7.5
X102 a_8482_9068# a_8648_7168# avss.t69 sky130_fd_pr__res_xhigh_po_0p35 l=7.5
X103 a_3082_4788# a_2982_4700.t4 a_3006_5653# avdd.t5 sky130_fd_pr__pfet_g5v0d10v5 ad=0.1218 pd=1.42 as=0.1218 ps=1.42 w=0.42 l=0.5
X104 a_4352_3118# a_4186_1218# avss.t138 sky130_fd_pr__res_xhigh_po_0p35 l=7.5
X105 a_9664_3118# a_9498_1218# avss.t131 sky130_fd_pr__res_xhigh_po_0p35 l=7.5
X106 dvss.t4 ena.t4 sky130_fd_pr__diode_pw2nd_05v5 perim=1.8e+06 area=2.025e+11
X107 a_4194_4788# a_3638_4788# a_4238_5653# avdd.t1 sky130_fd_pr__pfet_g5v0d10v5 ad=0.1218 pd=1.42 as=0.1218 ps=1.42 w=0.42 l=0.5
X108 a_7154_9068# a_6988_7168# avss.t140 sky130_fd_pr__res_xhigh_po_0p35 l=7.5
X109 a_1032_3118# a_1198_1218# avss.t128 sky130_fd_pr__res_xhigh_po_0p35 l=7.5
X110 a_8004_3118# a_8170_1218# avss.t12 sky130_fd_pr__res_xhigh_po_0p35 l=7.5
X111 avdd.t29 rc_osc_level_shifter_0.out_h.t5 a_7598_4659# avdd.t23 sky130_fd_pr__pfet_g5v0d10v5 ad=0.1218 pd=1.42 as=0.1218 ps=1.42 w=0.42 l=0.5
X112 a_6344_3118# a_6510_1218# avss.t127 sky130_fd_pr__res_xhigh_po_0p35 l=7.5
X113 a_3834_9068# a_4000_7168# avss.t120 sky130_fd_pr__res_xhigh_po_0p35 l=7.5
X114 a_9146_9068# a_9312_7168# avss.t72 sky130_fd_pr__res_xhigh_po_0p35 l=7.5
X115 a_3356_3118# a_3190_1218# avss.t133 sky130_fd_pr__res_xhigh_po_0p35 l=7.5
X116 a_8668_3118# a_8502_1218# avss.t137 sky130_fd_pr__res_xhigh_po_0p35 l=7.5
X117 dvss.t3 rc_osc_level_shifter_0.inb_l dout.t2 dvss.t2 sky130_fd_pr__nfet_01v8 ad=0.1218 pd=1.42 as=0.1218 ps=1.42 w=0.42 l=0.15
X118 a_6158_9068# a_5992_7168# avss.t67 sky130_fd_pr__res_xhigh_po_0p35 l=7.5
X119 a_2982_4700.t0 a_4750_4788# a_5148_4788# avss.t96 sky130_fd_pr__nfet_g5v0d10v5 ad=0.1218 pd=1.42 as=0.1218 ps=1.42 w=0.42 l=0.5
X120 a_4592_4788# a_1414_4786.t6 avss.t92 avss.t6 sky130_fd_pr__nfet_g5v0d10v5 ad=0.1218 pd=1.42 as=0.1218 ps=1.42 w=0.42 l=0.5
X121 a_7008_3118# a_7174_1218# avss.t121 sky130_fd_pr__res_xhigh_po_0p35 l=7.5
X122 a_5348_3118# a_5514_1218# avss.t83 sky130_fd_pr__res_xhigh_po_0p35 l=7.5
X123 a_846_9068# a_680_7168# avss.t123 sky130_fd_pr__res_xhigh_po_0p35 l=7.5
X124 a_8814_9068# a_8980_7168# avss.t11 sky130_fd_pr__res_xhigh_po_0p35 l=7.5
X125 avdd.t22 a_3004_7168# avss.t61 sky130_fd_pr__res_xhigh_po_0p35 l=7.5
X126 a_8150_9068# a_8316_7168# avss.t132 sky130_fd_pr__res_xhigh_po_0p35 l=7.5
X127 a_2526_4188# a_1414_4786.t7 avss.t91 avss.t90 sky130_fd_pr__nfet_g5v0d10v5 ad=0.1218 pd=1.42 as=0.1218 ps=1.42 w=0.42 l=0.5
X128 a_3638_4788# a_3082_4788# a_3480_4788# avss.t94 sky130_fd_pr__nfet_g5v0d10v5 ad=0.1218 pd=1.42 as=0.1218 ps=1.42 w=0.42 l=0.5
X129 a_4020_3118# a_3854_1218# avss.t110 sky130_fd_pr__res_xhigh_po_0p35 l=7.5
X130 a_2924_4788# a_1414_4786.t8 avss.t89 avss.t88 sky130_fd_pr__nfet_g5v0d10v5 ad=0.1218 pd=1.42 as=0.1218 ps=1.42 w=0.42 l=0.5
X131 a_9332_3118# a_9166_1218# avss.t5 sky130_fd_pr__res_xhigh_po_0p35 l=7.5
X132 a_6012_3118# a_6178_1218# avss.t4 sky130_fd_pr__res_xhigh_po_0p35 l=7.5
X133 a_2506_9068# a_2672_7168# avss.t109 sky130_fd_pr__res_xhigh_po_0p35 l=7.5
X134 a_7818_9068# a_7984_7168# avss.t119 sky130_fd_pr__res_xhigh_po_0p35 l=7.5
X135 a_4352_3118# a_4518_1218# avss.t118 sky130_fd_pr__res_xhigh_po_0p35 l=7.5
X136 dvdd.t5 ena.t5 a_6602_4786# dvdd.t4 sky130_fd_pr__pfet_01v8 ad=0.1218 pd=1.42 as=0.1218 ps=1.42 w=0.42 l=0.15
X137 a_1842_9068# a_2008_7168# avss.t3 sky130_fd_pr__res_xhigh_po_0p35 l=7.5
X138 a_700_3118# a_866_1218# avss.t2 sky130_fd_pr__res_xhigh_po_0p35 l=7.5
X139 a_6490_9068# a_6324_7168# avss.t108 sky130_fd_pr__res_xhigh_po_0p35 l=7.5
X140 a_8336_3118# a_8170_1218# avss.t93 sky130_fd_pr__res_xhigh_po_0p35 l=7.5
X141 a_3024_3118# a_2858_1218# avss.t10 sky130_fd_pr__res_xhigh_po_0p35 l=7.5
X142 a_4830_9068# a_4664_7168# avss.t43 sky130_fd_pr__res_xhigh_po_0p35 l=7.5
X143 a_1510_9068# a_1676_7168# avss.t1 sky130_fd_pr__res_xhigh_po_0p35 l=7.5
X144 a_514_9068# a_514_7168.t0 avss.t0 sky130_fd_pr__res_xhigh_po_0p35 l=7.5
X145 a_6822_9068# a_6988_7168# avss.t116 sky130_fd_pr__res_xhigh_po_0p35 l=7.5
X146 a_4750_4788# a_4194_4788# a_4592_4788# avss.t6 sky130_fd_pr__nfet_g5v0d10v5 ad=0.1218 pd=1.42 as=0.1218 ps=1.42 w=0.42 l=0.5
X147 a_2692_3118# a_2526_1218# avss.t106 sky130_fd_pr__res_xhigh_po_0p35 l=7.5
X148 a_2028_3118# a_1862_1218# avss.t105 sky130_fd_pr__res_xhigh_po_0p35 l=7.5
X149 a_5494_9068# a_5328_7168# avss.t104 sky130_fd_pr__res_xhigh_po_0p35 l=7.5
X150 a_9000_3118# a_8834_1218# avss.t60 sky130_fd_pr__res_xhigh_po_0p35 l=7.5
X151 a_2526_4188# rc_osc_level_shifter_0.out_h.t6 a_1538_5653.t13 avss.t90 sky130_fd_pr__nfet_g5v0d10v5 ad=0.1218 pd=1.42 as=0.1218 ps=1.42 w=0.42 l=0.5
X152 a_3834_9068# a_3668_7168# avss.t35 sky130_fd_pr__res_xhigh_po_0p35 l=7.5
X153 a_1414_4786.t1 a_1414_4786.t0 avss.t99 avss.t33 sky130_fd_pr__nfet_g5v0d10v5 ad=0.1218 pd=1.42 as=0.1218 ps=1.42 w=0.42 l=0.5
X154 a_3082_4788# a_2982_4700.t5 a_2924_4788# avss.t88 sky130_fd_pr__nfet_g5v0d10v5 ad=0.1218 pd=1.42 as=0.1218 ps=1.42 w=0.42 l=0.5
X155 a_4684_3118# a_4850_1218# avss.t9 sky130_fd_pr__res_xhigh_po_0p35 l=7.5
X156 a_2174_9068# a_2340_7168# avss.t34 sky130_fd_pr__res_xhigh_po_0p35 l=7.5
X157 a_7486_9068# a_7652_7168# avss.t16 sky130_fd_pr__res_xhigh_po_0p35 l=7.5
X158 a_1696_3118# a_1530_1218# avss.t107 sky130_fd_pr__res_xhigh_po_0p35 l=7.5
X159 avdd.t21 a_534_1218# avss.t59 sky130_fd_pr__res_xhigh_po_0p35 l=7.5
X160 a_4036_4788# a_1414_4786.t9 avss.t115 avss.t50 sky130_fd_pr__nfet_g5v0d10v5 ad=0.1218 pd=1.42 as=0.1218 ps=1.42 w=0.42 l=0.5
X161 a_8366_5327# rc_osc_level_shifter_0.outb_h.t4 avdd.t25 avdd.t24 sky130_fd_pr__pfet_g5v0d10v5 ad=0.1218 pd=1.42 as=0.1218 ps=1.42 w=0.42 l=0.5
X162 avdd.t20 a_2672_7168# avss.t42 sky130_fd_pr__res_xhigh_po_0p35 l=7.5
X163 a_4498_9068# a_4332_7168# avss.t58 sky130_fd_pr__res_xhigh_po_0p35 l=7.5
X164 a_8004_3118# a_7838_1218# avss.t18 sky130_fd_pr__res_xhigh_po_0p35 l=7.5
X165 a_9810_9068# a_9644_7168# avss.t41 sky130_fd_pr__res_xhigh_po_0p35 l=7.5
X166 a_3688_3118# a_3854_1218# avss.t126 sky130_fd_pr__res_xhigh_po_0p35 l=7.5
X167 a_10681_5200# a_6602_4786# dvdd.t1 dvdd.t0 sky130_fd_pr__pfet_01v8 ad=0.2475 pd=1.83 as=0.465 ps=3.62 w=1.5 l=0.15
X168 a_10142_9068# a_9976_7168# avss.t125 sky130_fd_pr__res_xhigh_po_0p35 l=7.5
R0 avss.n200 avss.n3 36543.5
R1 avss.n290 avss.n3 36543.5
R2 avss.n200 avss.n4 36543.5
R3 avss.n290 avss.n4 36543.5
R4 avss.n287 avss.n5 36543.5
R5 avss.n287 avss.n6 36543.5
R6 avss.n12 avss.n6 36543.5
R7 avss.n12 avss.n5 36543.5
R8 avss.t51 avss.n264 10971.7
R9 avss.t102 avss.n14 7496.3
R10 avss.n289 avss.n288 5872.44
R11 avss.t102 avss.n11 1380.27
R12 avss.n279 avss.n15 1379.81
R13 avss.n279 avss.n16 1379.81
R14 avss.n266 avss.n16 1379.81
R15 avss.n217 avss.n83 1379.81
R16 avss.n216 avss.n83 1379.81
R17 avss.n216 avss.n82 1379.81
R18 avss.n217 avss.n82 1379.81
R19 avss.n222 avss.n76 1379.81
R20 avss.n223 avss.n76 1379.81
R21 avss.n223 avss.n75 1379.81
R22 avss.n222 avss.n75 1379.81
R23 avss.n180 avss.n151 1379.81
R24 avss.n179 avss.n151 1379.81
R25 avss.n179 avss.n150 1379.81
R26 avss.n180 avss.n150 1379.81
R27 avss.n185 avss.n145 1379.81
R28 avss.n145 avss.n140 1379.81
R29 avss.n144 avss.n140 1379.81
R30 avss.n185 avss.n144 1379.81
R31 avss.n234 avss.n60 1379.81
R32 avss.n233 avss.n60 1379.81
R33 avss.n233 avss.n59 1379.81
R34 avss.n234 avss.n59 1379.81
R35 avss.n239 avss.n53 1379.81
R36 avss.n240 avss.n53 1379.81
R37 avss.n240 avss.n52 1379.81
R38 avss.n239 avss.n52 1379.81
R39 avss.n121 avss.n100 1379.81
R40 avss.n100 avss.n95 1379.81
R41 avss.n96 avss.n95 1379.81
R42 avss.n121 avss.n96 1379.81
R43 avss.n115 avss.n34 1379.81
R44 avss.n115 avss.n35 1379.81
R45 avss.n253 avss.n35 1379.81
R46 avss.n253 avss.n34 1379.81
R47 avss.n168 avss.n73 1379.81
R48 avss.n168 avss.n77 1379.81
R49 avss.n176 avss.n77 1379.81
R50 avss.n176 avss.n73 1379.81
R51 avss.n175 avss.n152 1379.81
R52 avss.n175 avss.n174 1379.81
R53 avss.n174 avss.n155 1379.81
R54 avss.n155 avss.n152 1379.81
R55 avss.n139 avss.n138 1379.81
R56 avss.n186 avss.n138 1379.81
R57 avss.n186 avss.n137 1379.81
R58 avss.n139 avss.n137 1379.81
R59 avss.n141 avss.n61 1379.81
R60 avss.n141 avss.n62 1379.81
R61 avss.n132 avss.n62 1379.81
R62 avss.n132 avss.n61 1379.81
R63 avss.n129 avss.n49 1379.81
R64 avss.n129 avss.n54 1379.81
R65 avss.n97 avss.n54 1379.81
R66 avss.n97 avss.n49 1379.81
R67 avss.n94 avss.n93 1379.81
R68 avss.n122 avss.n93 1379.81
R69 avss.n122 avss.n92 1379.81
R70 avss.n94 avss.n92 1379.81
R71 avss.n112 avss.n39 1379.81
R72 avss.n112 avss.n104 1379.81
R73 avss.n104 avss.n32 1379.81
R74 avss.n39 avss.n32 1379.81
R75 avss.n255 avss.n25 1379.81
R76 avss.n255 avss.n26 1379.81
R77 avss.n262 avss.n26 1379.81
R78 avss.n262 avss.n25 1379.81
R79 avss.n257 avss.n30 1379.81
R80 avss.n31 avss.n30 1379.81
R81 avss.n31 avss.n24 1379.81
R82 avss.n257 avss.n24 1379.81
R83 avss.n273 avss.n21 1379.81
R84 avss.n275 avss.n20 1379.81
R85 avss.n275 avss.n21 1379.81
R86 avss.n280 avss.n14 1030.34
R87 avss.n281 avss.n11 816.495
R88 avss.n8 avss.n7 712.534
R89 avss.n201 avss.n2 710.625
R90 avss.n286 avss.n7 701.706
R91 avss.n291 avss.n2 691.966
R92 avss.n274 avss.n20 683.336
R93 avss.n266 avss.n265 683.336
R94 avss.n286 avss.n285 627.799
R95 avss.n202 avss.n199 516.365
R96 avss.n284 avss.n8 434.414
R97 avss.n281 avss.n280 349.926
R98 avss.n292 avss.n1 318.509
R99 avss.n285 avss.n284 276.212
R100 avss.t135 avss.t76 267.938
R101 avss.t76 avss.t62 267.938
R102 avss.t62 avss.t79 267.938
R103 avss.t79 avss.t131 267.938
R104 avss.t131 avss.t114 267.938
R105 avss.t114 avss.t5 267.938
R106 avss.t5 avss.t81 267.938
R107 avss.t81 avss.t60 267.938
R108 avss.t60 avss.t38 267.938
R109 avss.t38 avss.t137 267.938
R110 avss.t125 avss.t25 267.546
R111 avss.t98 avss.t125 267.546
R112 avss.t41 avss.t98 267.546
R113 avss.t73 avss.t41 267.546
R114 avss.t77 avss.t73 267.546
R115 avss.t72 avss.t77 267.546
R116 avss.t63 avss.t72 267.546
R117 avss.t11 avss.t63 267.546
R118 avss.t56 avss.t11 267.546
R119 avss.t69 avss.t56 267.546
R120 avss.n200 avss.t135 255.6
R121 avss.t25 avss.n12 255.25
R122 avss.n198 avss.n1 248.393
R123 avss.t137 avss.t85 244.707
R124 avss.t132 avss.t117 244.363
R125 avss.t129 avss.t132 244.363
R126 avss.t119 avss.t129 244.363
R127 avss.t32 avss.t119 244.363
R128 avss.t16 avss.t30 244.363
R129 avss.t30 avss.t40 244.363
R130 avss.t40 avss.t140 244.363
R131 avss.t140 avss.t116 244.363
R132 avss.t116 avss.t111 244.363
R133 avss.t111 avss.t15 244.363
R134 avss.t15 avss.t108 244.363
R135 avss.t108 avss.t13 244.363
R136 avss.t13 avss.t67 244.363
R137 avss.t67 avss.t45 244.363
R138 avss.t74 avss.t80 244.281
R139 avss.t80 avss.t104 244.281
R140 avss.t136 avss.t14 244.281
R141 avss.t14 avss.t27 244.281
R142 avss.t27 avss.t43 244.281
R143 avss.t43 avss.t53 244.281
R144 avss.t53 avss.t58 244.281
R145 avss.t58 avss.t21 244.281
R146 avss.t21 avss.t78 244.281
R147 avss.t78 avss.t120 244.281
R148 avss.t120 avss.t35 244.281
R149 avss.t35 avss.t26 244.281
R150 avss.t26 avss.t66 244.281
R151 avss.t66 avss.t141 244.281
R152 avss.t141 avss.t22 244.281
R153 avss.t22 avss.t61 244.281
R154 avss.t61 avss.t42 244.281
R155 avss.t42 avss.t109 244.281
R156 avss.t109 avss.t49 244.281
R157 avss.t49 avss.t34 244.281
R158 avss.t34 avss.t17 244.281
R159 avss.t17 avss.t3 244.281
R160 avss.t3 avss.t54 244.281
R161 avss.t54 avss.t1 244.281
R162 avss.t1 avss.t130 244.281
R163 avss.t130 avss.t101 244.281
R164 avss.t101 avss.t19 244.281
R165 avss.t19 avss.t71 244.281
R166 avss.t71 avss.t123 244.281
R167 avss.t20 avss.t0 244.281
R168 avss.t51 avss.n14 236.889
R169 avss.n41 avss.t100 235.553
R170 avss.t0 avss.n287 234.507
R171 avss.t85 avss.t93 234.404
R172 avss.t93 avss.t12 234.404
R173 avss.t12 avss.t18 234.404
R174 avss.t18 avss.t36 234.404
R175 avss.t36 avss.t8 234.404
R176 avss.t8 avss.t122 234.404
R177 avss.n213 avss.t47 234.381
R178 avss.n66 avss.t89 234.012
R179 avss.n230 avss.t95 234.012
R180 avss.n50 avss.t115 234.012
R181 avss.n245 avss.t92 234.012
R182 avss.n248 avss.t97 234.012
R183 avss.n228 avss.t91 234.012
R184 avss.n86 avss.t99 233.994
R185 avss.n22 avss.t103 233.939
R186 avss.n88 avss.t52 233.929
R187 avss.t45 avss.t74 225.959
R188 avss.t117 avss.t69 222.579
R189 avss.t122 avss.t65 215.56
R190 avss.t65 avss.t121 169.584
R191 avss.t57 avss.t44 169.584
R192 avss.t127 avss.t48 169.584
R193 avss.n288 avss.t20 169.232
R194 avss.t4 avss.t28 168.529
R195 avss.t28 avss.t139 168.529
R196 avss.t139 avss.t39 168.529
R197 avss.t39 avss.t83 168.529
R198 avss.t31 avss.t68 168.529
R199 avss.t9 avss.t86 168.529
R200 avss.t133 avss.t37 168.529
R201 avss.t134 avss.t10 168.529
R202 avss.t107 avss.t113 168.529
R203 avss.t84 avss.t7 168.529
R204 avss.t64 avss.t2 168.529
R205 avss.t59 avss.t23 168.529
R206 avss.n290 avss.t59 166.969
R207 avss.t87 avss.t75 162.434
R208 avss.t6 avss.t118 149.239
R209 avss.n258 avss.n257 146.25
R210 avss.n257 avss.t87 146.25
R211 avss.n106 avss.n31 146.25
R212 avss.t87 avss.n31 146.25
R213 avss.n260 avss.n25 146.25
R214 avss.t87 avss.n25 146.25
R215 avss.n258 avss.n26 146.25
R216 avss.t87 avss.n26 146.25
R217 avss.n250 avss.n39 146.25
R218 avss.t96 avss.n39 146.25
R219 avss.n109 avss.n104 146.25
R220 avss.n104 avss.t96 146.25
R221 avss.n94 avss.n44 146.25
R222 avss.t6 avss.n94 146.25
R223 avss.n123 avss.n122 146.25
R224 avss.n122 avss.t6 146.25
R225 avss.n241 avss.n49 146.25
R226 avss.t50 avss.n49 146.25
R227 avss.n126 avss.n54 146.25
R228 avss.t50 avss.n54 146.25
R229 avss.n232 avss.n61 146.25
R230 avss.t94 avss.n61 146.25
R231 avss.n190 avss.n62 146.25
R232 avss.t94 avss.n62 146.25
R233 avss.n159 avss.n139 146.25
R234 avss.t88 avss.n139 146.25
R235 avss.n187 avss.n186 146.25
R236 avss.n186 avss.t88 146.25
R237 avss.n152 avss.n68 146.25
R238 avss.t90 avss.n152 146.25
R239 avss.n174 avss.n173 146.25
R240 avss.t90 avss.n174 146.25
R241 avss.n224 avss.n73 146.25
R242 avss.t33 avss.n73 146.25
R243 avss.n170 avss.n77 146.25
R244 avss.t33 avss.n77 146.25
R245 avss.n38 avss.n34 146.25
R246 avss.t96 avss.n34 146.25
R247 avss.n250 avss.n35 146.25
R248 avss.t96 avss.n35 146.25
R249 avss.n121 avss.n120 146.25
R250 avss.t6 avss.n121 146.25
R251 avss.n95 avss.n44 146.25
R252 avss.t6 avss.n95 146.25
R253 avss.n239 avss.n238 146.25
R254 avss.t50 avss.n239 146.25
R255 avss.n241 avss.n240 146.25
R256 avss.n240 avss.t50 146.25
R257 avss.n235 avss.n234 146.25
R258 avss.n234 avss.t94 146.25
R259 avss.n233 avss.n232 146.25
R260 avss.t94 avss.n233 146.25
R261 avss.n185 avss.n184 146.25
R262 avss.t88 avss.n185 146.25
R263 avss.n159 avss.n140 146.25
R264 avss.t88 avss.n140 146.25
R265 avss.n181 avss.n180 146.25
R266 avss.n180 avss.t90 146.25
R267 avss.n179 avss.n68 146.25
R268 avss.t90 avss.n179 146.25
R269 avss.n222 avss.n221 146.25
R270 avss.t33 avss.n222 146.25
R271 avss.n224 avss.n223 146.25
R272 avss.n223 avss.t33 146.25
R273 avss.n218 avss.n217 146.25
R274 avss.n217 avss.t46 146.25
R275 avss.n216 avss.n215 146.25
R276 avss.t46 avss.n216 146.25
R277 avss.n18 avss.n16 146.25
R278 avss.t51 avss.n16 146.25
R279 avss.n269 avss.n15 146.25
R280 avss.n276 avss.n275 146.25
R281 avss.n275 avss.t102 146.25
R282 avss.n273 avss.n272 146.25
R283 avss.t33 avss.t105 145.179
R284 avss.t88 avss.t55 141.118
R285 avss.n98 avss.t112 138.071
R286 avss.t94 avss.t124 137.056
R287 avss.t82 avss.n178 134.011
R288 avss.n14 avss.t32 133.958
R289 avss.t46 avss.t128 132.995
R290 avss.n114 avss.n113 131.981
R291 avss.n143 avss.n142 131.981
R292 avss.n167 avss.n166 131.981
R293 avss.n154 avss.t29 129.95
R294 avss.t96 avss.t24 128.935
R295 avss.n256 avss.t4 128.472
R296 avss.n130 avss.t110 125.888
R297 avss.t104 avss.n13 122.141
R298 avss.n13 avss.t136 122.141
R299 avss.n105 avss.n24 117.207
R300 avss.n263 avss.n24 117.001
R301 avss.n30 avss.n28 117.001
R302 avss.n256 avss.n30 117.001
R303 avss.n262 avss.n261 117.001
R304 avss.n263 avss.n262 117.001
R305 avss.n255 avss.n29 117.001
R306 avss.n256 avss.n255 117.001
R307 avss.n36 avss.n32 117.001
R308 avss.n254 avss.n32 117.001
R309 avss.n112 avss.n111 117.001
R310 avss.n114 avss.n112 117.001
R311 avss.n101 avss.n92 117.001
R312 avss.n113 avss.n92 117.001
R313 avss.n93 avss.n46 117.001
R314 avss.n99 avss.n93 117.001
R315 avss.n97 avss.n48 117.001
R316 avss.n98 avss.n97 117.001
R317 avss.n129 avss.n128 117.001
R318 avss.n130 avss.n129 117.001
R319 avss.n133 avss.n132 117.001
R320 avss.n132 avss.n131 117.001
R321 avss.n141 avss.n134 117.001
R322 avss.n142 avss.n141 117.001
R323 avss.n137 avss.n135 117.001
R324 avss.n143 avss.n137 117.001
R325 avss.n156 avss.n138 117.001
R326 avss.n153 avss.n138 117.001
R327 avss.n163 avss.n155 117.001
R328 avss.n155 avss.n154 117.001
R329 avss.n175 avss.n70 117.001
R330 avss.n178 avss.n175 117.001
R331 avss.n176 avss.n72 117.001
R332 avss.n177 avss.n176 117.001
R333 avss.n169 avss.n168 117.001
R334 avss.n168 avss.n167 117.001
R335 avss.n253 avss.n252 117.001
R336 avss.n254 avss.n253 117.001
R337 avss.n116 avss.n115 117.001
R338 avss.n115 avss.n114 117.001
R339 avss.n103 avss.n96 117.001
R340 avss.n113 avss.n96 117.001
R341 avss.n100 avss.n45 117.001
R342 avss.n100 avss.n99 117.001
R343 avss.n52 avss.n47 117.001
R344 avss.n98 avss.n52 117.001
R345 avss.n56 avss.n53 117.001
R346 avss.n130 avss.n53 117.001
R347 avss.n59 avss.n57 117.001
R348 avss.n131 avss.n59 117.001
R349 avss.n64 avss.n60 117.001
R350 avss.n142 avss.n60 117.001
R351 avss.n157 avss.n144 117.001
R352 avss.n144 avss.n143 117.001
R353 avss.n147 avss.n145 117.001
R354 avss.n153 avss.n145 117.001
R355 avss.n150 avss.n148 117.001
R356 avss.n154 avss.n150 117.001
R357 avss.n151 avss.n69 117.001
R358 avss.n178 avss.n151 117.001
R359 avss.n75 avss.n71 117.001
R360 avss.n177 avss.n75 117.001
R361 avss.n79 avss.n76 117.001
R362 avss.n167 avss.n76 117.001
R363 avss.n82 avss.n80 117.001
R364 avss.n166 avss.n82 117.001
R365 avss.n83 avss.n81 117.001
R366 avss.n84 avss.n83 117.001
R367 avss.n267 avss.n266 117.001
R368 avss.n21 avss.n17 117.001
R369 avss.n21 avss.n11 117.001
R370 avss.n279 avss.n278 117.001
R371 avss.n280 avss.n279 117.001
R372 avss.n20 avss.n19 117.001
R373 avss.t44 avss.n263 114.418
R374 avss.n14 avss.t16 110.406
R375 avss.n99 avss.t138 101.523
R376 avss.n170 avss.n169 98.8418
R377 avss.t70 avss.n177 97.4624
R378 avss.t23 avss.n289 96.4472
R379 avss.t106 avss.n153 93.4015
R380 avss.n264 avss.t57 91.9439
R381 avss.t50 avss.t110 90.3558
R382 avss.n131 avss.t126 89.3406
R383 avss.t90 avss.t29 86.2949
R384 avss.n84 avss.t64 85.2797
R385 avss.t24 avss.n33 84.2645
R386 avss.t128 avss.n84 83.2492
R387 avss.n259 avss.n28 82.4476
R388 avss.t90 avss.t82 82.234
R389 avss.n252 avss.n36 82.0711
R390 avss.n111 avss.n40 82.0711
R391 avss.n219 avss.n80 82.0711
R392 avss.n85 avss.n80 82.0711
R393 avss.n162 avss.n148 82.0711
R394 avss.n163 avss.n162 82.0711
R395 avss.n226 avss.n69 82.0711
R396 avss.n226 avss.n70 82.0711
R397 avss.n158 avss.n157 82.0711
R398 avss.n158 avss.n135 82.0711
R399 avss.n161 avss.n147 82.0711
R400 avss.n161 avss.n156 82.0711
R401 avss.n63 avss.n57 82.0711
R402 avss.n133 avss.n63 82.0711
R403 avss.n65 avss.n64 82.0711
R404 avss.n134 avss.n65 82.0711
R405 avss.n242 avss.n47 82.0711
R406 avss.n242 avss.n48 82.0711
R407 avss.n127 avss.n56 82.0711
R408 avss.n128 avss.n127 82.0711
R409 avss.n103 avss.n102 82.0711
R410 avss.n102 avss.n101 82.0711
R411 avss.n243 avss.n45 82.0711
R412 avss.n243 avss.n46 82.0711
R413 avss.n116 avss.n40 82.0711
R414 avss.n220 avss.n79 82.0711
R415 avss.n165 avss.n79 82.0711
R416 avss.n78 avss.n71 82.0711
R417 avss.n225 avss.n71 82.0711
R418 avss.n225 avss.n72 82.0711
R419 avss.n169 avss.n165 82.0711
R420 avss.n108 avss.n36 81.6946
R421 avss.n111 avss.n110 81.6946
R422 avss.n182 avss.n148 81.6946
R423 avss.n164 avss.n163 81.6946
R424 avss.n149 avss.n69 81.6946
R425 avss.n172 avss.n70 81.6946
R426 avss.n157 avss.n146 81.6946
R427 avss.n188 avss.n135 81.6946
R428 avss.n183 avss.n147 81.6946
R429 avss.n156 avss.n136 81.6946
R430 avss.n236 avss.n57 81.6946
R431 avss.n191 avss.n133 81.6946
R432 avss.n64 avss.n58 81.6946
R433 avss.n189 avss.n134 81.6946
R434 avss.n55 avss.n47 81.6946
R435 avss.n125 avss.n48 81.6946
R436 avss.n237 avss.n56 81.6946
R437 avss.n192 avss.n128 81.6946
R438 avss.n118 avss.n103 81.6946
R439 avss.n101 avss.n91 81.6946
R440 avss.n119 avss.n45 81.6946
R441 avss.n124 avss.n46 81.6946
R442 avss.n117 avss.n116 81.6946
R443 avss.n171 avss.n72 81.6946
R444 avss.t83 avss.n254 81.2188